##########                 Name:             262642_2
##########          Protonation:                 none
##########               SMILES:   CC(C)(C)C[C@H](N[C@H](C1=CC=C(F)C=C1)C(F)(F)F)C(=O)NC1(C(=[NH2+])[SiH3])CC1
##########            Long Name:   NO_LONG_NAME
##########          FlexRecCode: 1
##########               Number:                    8
##########   Ligand Source File: -
##########                 Rank:                    1
##########               Setnum:                    3
##########             Matchnum:                    1
##########                  OXR:     0.0000     0.0000     0.0000
##########                  OXR:     0.0000     0.0000     0.0000
##########                  OXR:     0.0000     0.0000     0.0000
##########                  OXR:     0.0000     0.0000     0.0000
##########                  OXS:     0.0000     0.0000     0.0000
##########                  OXS:     0.0000     0.0000     0.0000
##########                  OXS:     0.0000     0.0000     0.0000
##########                  OXS:     0.0000     0.0000     0.0000
##########                Cloud:                    1
##########        Electrostatic:             4.301788
##########                 Gist:             0.000000
##########        Van der Waals:            78.734245
##########  Ligand Polar Desolv:            12.123370
########## Ligand Apolar Desolv:            -4.304084
##########         Total Strain:             0.000000
##########           Max Strain:             0.000000
########## Receptor Desolvation:             0.000000
########## Receptor Hydrophobic:             0.000000
##########         Total Energy:            90.855316
##########        Ligand Charge:             1.000000
##########            Arbitrary:    +999.9990
##########        Ligand Energy:             0.000000

@<TRIPOS>MOLECULE
         262642_2      none
   52    53     1     0     0



@<TRIPOS>ATOM
      1 C1         32.9112    16.4279    28.6517 C.ar       1  LIG1  -0.1700
      2 C2         34.1114    14.8198    29.9593 C.ar       1  LIG1  -0.0600
      3 C3         34.0357    16.6385    27.8764 C.ar       1  LIG1  -0.1300
      4 C4         35.2355    15.0248    29.1820 C.ar       1  LIG1  -0.1400
      5 C5         32.9508    15.5231    29.6963 C.ar       1  LIG1  -0.1000
      6 C6         35.1989    15.9349    28.1392 C.ar       1  LIG1   0.0600
      7 C7         26.3581    18.2806    34.3820 C.2        1  LIG1   0.0000
      8 C8         29.2986    17.5142    32.2023 C.2        1  LIG1  -0.6300
      9 C9         26.8323    18.9557    31.9199 C.3        1  LIG1   0.0900
     10 C10        27.5561    19.9662    32.8120 C.3        1  LIG1   0.1300
     11 C11        27.3652    18.5246    33.2877 C.3        1  LIG1  -0.1100
     12 C12        33.5692    17.4440    32.1759 C.3        1  LIG1  -0.0500
     13 C13        32.7485    18.8285    34.0869 C.3        1  LIG1  -0.1500
     14 C14        31.5672    18.9106    31.8870 C.3        1  LIG1   0.1200
     15 C15        31.4197    16.8611    33.3084 C.3        1  LIG1  -0.1300
     16 C16        31.7258    15.2989    30.5448 C.3        1  LIG1  -0.1500
     17 C17        30.4355    16.5251    32.1862 C.3        1  LIG1  -0.0600
     18 C18        32.3262    18.0110    32.8646 C.3        1  LIG1   0.4200
     19 C19        30.7113    14.4604    29.7646 C.3        1  LIG1  -0.1700
     20 N1         28.5461    17.6580    33.3111 N.am       1  LIG1  -0.1700
     21 N2         31.1266    16.5945    30.8918 N.3        1  LIG1  -0.1900
     22 N3         25.2570    18.9321    34.3950 N.pl3      1  LIG1   0.5500
     23 O1         29.0608    18.1808    31.2175 O.2        1  LIG1  -0.5100
     24 F1         36.2970    16.1360    27.3784 F          1  LIG1  -0.7000
     25 F2         29.5741    14.2523    30.5525 F          1  LIG1   0.0400
     26 F3         30.3503    15.1356    28.5938 F          1  LIG1   0.1600
     27 F4         31.2819    13.2266    29.4342 F          1  LIG1  -0.6000
     28 H1         32.0025    16.9734    28.4441 H          1  LIG1   0.4500
     29 H2         34.1398    14.1099    30.7727 H          1  LIG1   0.9900
     30 H3         34.0059    17.3484    27.0630 H          1  LIG1  -0.1800
     31 H4         36.1422    14.4752    29.3878 H          1  LIG1  -0.1900
     32 H5         27.3603    18.5944    31.0374 H          1  LIG1  -0.1900
     33 H6         25.7530    19.0627    31.8111 H          1  LIG1  -0.1300
     34 H7         26.9530    20.7380    33.2902 H          1  LIG1  -0.1600
     35 H8         28.5604    20.2697    32.5164 H          1  LIG1   0.0800
     36 H9         33.2684    16.8616    31.3051 H          1  LIG1   0.0500
     37 H10        34.2150    18.2633    31.8598 H          1  LIG1   0.0600
     38 H11        34.1099    16.8032    32.8724 H          1  LIG1   0.0300
     39 H12        31.8630    19.2325    34.5775 H          1  LIG1   0.0600
     40 H13        33.2893    18.1876    34.7834 H          1  LIG1   0.0800
     41 H14        33.3943    19.6477    33.7708 H          1  LIG1   0.0500
     42 H15        30.6816    19.3145    32.3776 H          1  LIG1   0.0600
     43 H16        32.2128    19.7298    31.5708 H          1  LIG1   0.0600
     44 H17        31.2662    18.3282    31.0162 H          1  LIG1   0.0900
     45 H18        32.0279    15.9849    33.5327 H          1  LIG1   0.0700
     46 H19        30.8670    17.1576    34.1999 H          1  LIG1   0.3700
     47 H20        32.0070    14.7727    31.4570 H          1  LIG1   0.1300
     48 H21        30.0439    15.5190    32.3356 H          1  LIG1   0.1400
     49 H22        28.7865    17.1876    34.1248 H          1  LIG1   0.1400
     50 H23        30.5021    16.9103    30.1650 H          1  LIG1   0.1400
     51 H24        25.0705    19.5831    33.7005 H          1  LIG1   0.4100
     52 H25        24.6089    18.7750    35.0993 H          1  LIG1   0.1700
@<TRIPOS>BOND
     1    1    3 ar
     2    1    5 ar
     3    2    4 ar
     4    2    5 ar
     5    3    6 ar
     6    4    6 ar
     7    5   16 1
     8    6   24 1
     9    7   11 1
    10    7   22 2
    11    8   17 1
    12    8   20 am
    13    8   23 2
    14    9   10 1
    15    9   11 1
    16   10   11 1
    17   11   20 1
    18   12   18 1
    19   13   18 1
    20   14   18 1
    21   15   17 1
    22   15   18 1
    23   16   19 1
    24   16   21 1
    25   17   21 1
    26   19   25 1
    27   19   26 1
    28   19   27 1
    29    1   28 1
    30    2   29 1
    31    3   30 1
    32    4   31 1
    33    9   32 1
    34    9   33 1
    35   10   34 1
    36   10   35 1
    37   12   36 1
    38   12   37 1
    39   12   38 1
    40   13   39 1
    41   13   40 1
    42   13   41 1
    43   14   42 1
    44   14   43 1
    45   14   44 1
    46   15   45 1
    47   15   46 1
    48   16   47 1
    49   17   48 1
    50   20   49 1
    51   21   50 1
    52   22   51 1
    53   22   52 1
##########                 Name:             262642_3
##########          Protonation:                 none
##########               SMILES:   CC(C)(C)C[C@@H](N[C@H](C1=CC=C(F)C=C1)C(F)(F)F)C(=O)NC1(C(=[NH2+])[SiH3])CC1
##########            Long Name:   NO_LONG_NAME
##########          FlexRecCode: 1
##########               Number:                    9
##########   Ligand Source File: -
##########                 Rank:                    1
##########               Setnum:                    4
##########             Matchnum:                    1
##########                  OXR:     0.0000     0.0000     0.0000
##########                  OXR:     0.0000     0.0000     0.0000
##########                  OXR:     0.0000     0.0000     0.0000
##########                  OXR:     0.0000     0.0000     0.0000
##########                  OXS:     0.0000     0.0000     0.0000
##########                  OXS:     0.0000     0.0000     0.0000
##########                  OXS:     0.0000     0.0000     0.0000
##########                  OXS:     0.0000     0.0000     0.0000
##########                Cloud:                    1
##########        Electrostatic:            18.148775
##########                 Gist:             0.000000
##########        Van der Waals:            26.058559
##########  Ligand Polar Desolv:             7.734394
########## Ligand Apolar Desolv:            -4.863502
##########         Total Strain:             0.000000
##########           Max Strain:             0.000000
########## Receptor Desolvation:             0.000000
########## Receptor Hydrophobic:             0.000000
##########         Total Energy:            47.078228
##########        Ligand Charge:             1.000000
##########            Arbitrary:    +999.9990
##########        Ligand Energy:             0.000000

@<TRIPOS>MOLECULE
         262642_3      none
   52    53     1     0     0



@<TRIPOS>ATOM
      1 C1         32.0012    17.4725    29.7255 C.ar       1  LIG1  -0.1600
      2 C2         31.1945    15.9256    31.3664 C.ar       1  LIG1  -0.0600
      3 C3         33.2992    17.0795    29.9913 C.ar       1  LIG1  -0.1500
      4 C4         32.4913    15.5272    31.6301 C.ar       1  LIG1  -0.1500
      5 C5         30.9497    16.8996    30.4164 C.ar       1  LIG1  -0.1000
      6 C6         33.5455    16.1040    30.9425 C.ar       1  LIG1   0.0500
      7 C7         26.3402    18.2370    34.3664 C.2        1  LIG1   0.0000
      8 C8         28.0702    19.2808    31.8419 C.2        1  LIG1  -0.6300
      9 C9         26.2927    20.8157    34.6676 C.3        1  LIG1   0.0900
     10 C10        27.7526    20.3744    34.7885 C.3        1  LIG1   0.1000
     11 C11        26.7895    19.5947    33.8911 C.3        1  LIG1  -0.1300
     12 C12        27.6202    22.2850    27.9295 C.3        1  LIG1  -0.0600
     13 C13        28.8033    20.1120    27.5811 C.3        1  LIG1  -0.1500
     14 C14        26.3790    20.1317    28.1854 C.3        1  LIG1   0.1200
     15 C15        28.0936    20.7940    29.8776 C.3        1  LIG1  -0.1300
     16 C16        29.5352    17.3328    30.1294 C.3        1  LIG1  -0.1600
     17 C17        28.1975    19.3398    30.3415 C.3        1  LIG1  -0.0600
     18 C18        27.7240    20.8307    28.3933 C.3        1  LIG1   0.4600
     19 C19        29.0371    16.6390    28.8599 C.3        1  LIG1  -0.1600
     20 N1         26.9520    19.7349    32.4418 N.am       1  LIG1  -0.1800
     21 N2         29.4982    18.7888    29.9383 N.3        1  LIG1  -0.1800
     22 N3         26.2070    17.2782    33.5299 N.pl3      1  LIG1   0.4900
     23 O1         28.9762    18.8294    32.5101 O.2        1  LIG1  -0.5100
     24 F1         34.8137    15.7157    31.1999 F          1  LIG1  -0.6900
     25 F2         27.7238    17.0410    28.5934 F          1  LIG1   0.0300
     26 F3         29.8595    16.9891    27.7838 F          1  LIG1   0.1500
     27 F4         29.0723    15.2523    29.0420 F          1  LIG1  -0.6000
     28 H1         31.8085    18.2303    28.9806 H          1  LIG1   0.4300
     29 H2         30.3721    15.4760    31.9029 H          1  LIG1   0.9900
     30 H3         34.1208    17.5301    29.4543 H          1  LIG1  -0.1900
     31 H4         32.6823    14.7660    32.3722 H          1  LIG1  -0.2000
     32 H5         26.0866    21.7233    34.1002 H          1  LIG1  -0.1800
     33 H6         25.6404    20.6372    35.5225 H          1  LIG1  -0.1100
     34 H7         28.0610    19.9056    35.7229 H          1  LIG1  -0.1300
     35 H8         28.5071    20.9917    34.3007 H          1  LIG1   0.0500
     36 H9         26.8513    22.7969    28.5080 H          1  LIG1   0.0600
     37 H10        28.5785    22.7829    28.0777 H          1  LIG1   0.0600
     38 H11        27.3569    22.3111    26.8720 H          1  LIG1   0.0600
     39 H12        28.8772    19.0760    27.9116 H          1  LIG1   0.0600
     40 H13        28.5400    20.1383    26.5237 H          1  LIG1   0.0500
     41 H14        29.7615    20.6100    27.7294 H          1  LIG1   0.0900
     42 H15        26.4529    19.0958    28.5157 H          1  LIG1   0.0500
     43 H16        25.6102    20.6437    28.7640 H          1  LIG1   0.0500
     44 H17        26.1157    20.1580    27.1280 H          1  LIG1   0.0800
     45 H18        27.3248    21.3060    30.4563 H          1  LIG1   0.0800
     46 H19        29.0519    21.2919    30.0258 H          1  LIG1   0.3800
     47 H20        28.8944    17.0599    30.9679 H          1  LIG1   0.1500
     48 H21        27.3982    18.7551    29.8858 H          1  LIG1   0.1400
     49 H22        26.2547    20.1545    31.9139 H          1  LIG1   0.1400
     50 H23        30.2515    19.2382    30.4370 H          1  LIG1   0.1300
     51 H24        26.3953    17.4251    32.5897 H          1  LIG1   0.4200
     52 H25        25.9179    16.4043    33.8358 H          1  LIG1   0.1400
@<TRIPOS>BOND
     1    1    3 ar
     2    1    5 ar
     3    2    4 ar
     4    2    5 ar
     5    3    6 ar
     6    4    6 ar
     7    5   16 1
     8    6   24 1
     9    7   11 1
    10    7   22 2
    11    8   17 1
    12    8   20 am
    13    8   23 2
    14    9   10 1
    15    9   11 1
    16   10   11 1
    17   11   20 1
    18   12   18 1
    19   13   18 1
    20   14   18 1
    21   15   17 1
    22   15   18 1
    23   16   19 1
    24   16   21 1
    25   17   21 1
    26   19   25 1
    27   19   26 1
    28   19   27 1
    29    1   28 1
    30    2   29 1
    31    3   30 1
    32    4   31 1
    33    9   32 1
    34    9   33 1
    35   10   34 1
    36   10   35 1
    37   12   36 1
    38   12   37 1
    39   12   38 1
    40   13   39 1
    41   13   40 1
    42   13   41 1
    43   14   42 1
    44   14   43 1
    45   14   44 1
    46   15   45 1
    47   15   46 1
    48   16   47 1
    49   17   48 1
    50   20   49 1
    51   21   50 1
    52   22   51 1
    53   22   52 1
##########                 Name:             258065_0
##########          Protonation:                 none
##########               SMILES:   [NH2+]=C([SiH3])CNC(=O)CNC(=O)OCC1=CC=CC=C1
##########            Long Name:   NO_LONG_NAME
##########          FlexRecCode: 1
##########               Number:                   57
##########   Ligand Source File: -
##########                 Rank:                    1
##########               Setnum:                    3
##########             Matchnum:                    1
##########                  OXR:     0.0000     0.0000     0.0000
##########                  OXR:     0.0000     0.0000     0.0000
##########                  OXR:     0.0000     0.0000     0.0000
##########                  OXR:     0.0000     0.0000     0.0000
##########                  OXS:     0.0000     0.0000     0.0000
##########                  OXS:     0.0000     0.0000     0.0000
##########                  OXS:     0.0000     0.0000     0.0000
##########                  OXS:     0.0000     0.0000     0.0000
##########                Cloud:                    1
##########        Electrostatic:             0.361728
##########                 Gist:             0.000000
##########        Van der Waals:            -0.999441
##########  Ligand Polar Desolv:             6.082110
########## Ligand Apolar Desolv:            -0.765920
##########         Total Strain:             0.000000
##########           Max Strain:             0.000000
########## Receptor Desolvation:             0.000000
########## Receptor Hydrophobic:             0.000000
##########         Total Energy:             4.678477
##########        Ligand Charge:             1.000000
##########            Arbitrary:    +999.9990
##########        Ligand Energy:             0.000000

@<TRIPOS>MOLECULE
         258065_0      none
   33    33     1     0     0



@<TRIPOS>ATOM
      1 C1         33.6130    11.7097    24.4143 C.ar       1  LIG1  -0.6100
      2 C2         32.2566    11.4677    24.5257 C.ar       1  LIG1   0.4300
      3 C3         34.1241    12.9486    24.7531 C.ar       1  LIG1   0.4500
      4 C4         31.4106    12.4663    24.9704 C.ar       1  LIG1   0.1200
      5 C5         33.2775    13.9486    25.1937 C.ar       1  LIG1   1.0200
      6 C6         31.9210    13.7069    25.3042 C.ar       1  LIG1  -0.1900
      7 C7         29.0749    16.3863    31.3046 C.2        1  LIG1  -0.2000
      8 C8         27.5526    18.0489    34.2339 C.2        1  LIG1   0.0000
      9 C9         30.0880    15.6348    27.8286 C.2        1  LIG1   0.0900
     10 C10        30.9985    14.7958    25.7882 C.3        1  LIG1  -0.7500
     11 C11        29.0724    16.6145    29.8150 C.3        1  LIG1   0.5200
     12 C12        28.3480    16.9620    33.5579 C.3        1  LIG1  -0.4900
     13 N1         28.3454    17.1838    32.1097 N.am       1  LIG1   0.1200
     14 N2         29.9362    15.6240    29.1676 N.am       1  LIG1  -0.7100
     15 N3         27.0060    18.9707    33.5350 N.pl3      1  LIG1   0.6600
     16 O1         29.7336    15.4851    31.7789 O.2        1  LIG1  -0.5700
     17 O2         29.5084    16.4661    27.1581 O.2        1  LIG1  -0.3600
     18 O3         30.8819    14.7246    27.2337 O.3        1  LIG1   0.1300
     19 H1         34.2740    10.9296    24.0668 H          1  LIG1  -0.0900
     20 H2         31.8578    10.4985    24.2650 H          1  LIG1  -0.1200
     21 H3         35.1845    13.1364    24.6704 H          1  LIG1  -0.1000
     22 H4         30.3507    12.2774    25.0568 H          1  LIG1  -0.1200
     23 H5         33.6763    14.9179    25.4541 H          1  LIG1  -0.0900
     24 H6         31.4026    15.7674    25.5037 H          1  LIG1   0.1600
     25 H7         30.0147    14.6656    25.3374 H          1  LIG1   0.1600
     26 H8         29.4440    17.6163    29.6002 H          1  LIG1   0.4000
     27 H9         28.0560    16.5145    29.4339 H          1  LIG1   0.1100
     28 H10        27.8996    15.9932    33.7779 H          1  LIG1   0.1100
     29 H11        29.3737    16.9796    33.9263 H          1  LIG1   0.4200
     30 H12        27.8187    17.9045    31.7304 H          1  LIG1   0.0800
     31 H13        30.3989    14.9604    29.7029 H          1  LIG1   0.0800
     32 H14        27.1038    18.9699    32.5699 H          1  LIG1   0.1200
     33 H15        26.4941    19.6702    33.9701 H          1  LIG1   0.1300
@<TRIPOS>BOND
     1    1    2 ar
     2    1    3 ar
     3    2    4 ar
     4    3    5 ar
     5    4    6 ar
     6    5    6 ar
     7    6   10 1
     8    7   11 1
     9    7   13 am
    10    7   16 2
    11    8   12 1
    12    8   15 2
    13    9   14 am
    14    9   17 2
    15    9   18 1
    16   10   18 1
    17   11   14 1
    18   12   13 1
    19    1   19 1
    20    2   20 1
    21    3   21 1
    22    4   22 1
    23    5   23 1
    24   10   24 1
    25   10   25 1
    26   11   26 1
    27   11   27 1
    28   12   28 1
    29   12   29 1
    30   13   30 1
    31   14   31 1
    32   15   32 1
    33   15   33 1
##########                 Name:             258070_1
##########          Protonation:                 none
##########               SMILES:   CC(C)C[C@@H](N[C@@H](C1=CC=C(F)C=C1)C(F)(F)F)C(=O)NC1(C(=[NH2+])[SiH3])CC1
##########            Long Name:   NO_LONG_NAME
##########          FlexRecCode: 1
##########               Number:                   76
##########   Ligand Source File: -
##########                 Rank:                    1
##########               Setnum:                    5
##########             Matchnum:                    1
##########                  OXR:     0.0000     0.0000     0.0000
##########                  OXR:     0.0000     0.0000     0.0000
##########                  OXR:     0.0000     0.0000     0.0000
##########                  OXR:     0.0000     0.0000     0.0000
##########                  OXS:     0.0000     0.0000     0.0000
##########                  OXS:     0.0000     0.0000     0.0000
##########                  OXS:     0.0000     0.0000     0.0000
##########                  OXS:     0.0000     0.0000     0.0000
##########                Cloud:                    1
##########        Electrostatic:             9.117351
##########                 Gist:             0.000000
##########        Van der Waals:             0.099495
##########  Ligand Polar Desolv:             7.814360
########## Ligand Apolar Desolv:            -3.160102
##########         Total Strain:             0.000000
##########           Max Strain:             0.000000
########## Receptor Desolvation:             0.000000
########## Receptor Hydrophobic:             0.000000
##########         Total Energy:            13.871102
##########        Ligand Charge:             1.000000
##########            Arbitrary:    +999.9990
##########        Ligand Energy:             0.000000

@<TRIPOS>MOLECULE
         258070_1      none
   49    50     1     0     0



@<TRIPOS>ATOM
      1 C1         32.9253    20.4303    29.5216 C.ar       1  LIG1  -0.1600
      2 C2         32.1379    20.4132    27.2597 C.ar       1  LIG1  -0.1100
      3 C3         34.1225    20.9785    29.1020 C.ar       1  LIG1  -0.1500
      4 C4         33.3323    20.9662    26.8385 C.ar       1  LIG1  -0.1400
      5 C5         31.9354    20.1430    28.6003 C.ar       1  LIG1   0.0600
      6 C6         34.3264    21.2496    27.7597 C.ar       1  LIG1   0.1200
      7 C7         26.9380    18.1517    34.1949 C.2        1  LIG1   0.0000
      8 C8         28.4371    19.9363    31.9562 C.2        1  LIG1   0.0900
      9 C9         25.7518    20.4514    34.4122 C.3        1  LIG1   0.1100
     10 C10        27.2212    20.6651    34.7809 C.3        1  LIG1  -0.1400
     11 C11        26.8369    19.5913    33.7611 C.3        1  LIG1  -0.0500
     12 C12        27.1491    20.1212    28.0496 C.3        1  LIG1  -0.1600
     13 C13        27.3826    22.6053    27.9190 C.3        1  LIG1   0.1200
     14 C14        28.1280    21.3866    29.9687 C.3        1  LIG1  -0.1300
     15 C15        30.6323    19.5405    29.0585 C.3        1  LIG1  -0.1500
     16 C16        28.7639    20.0979    30.4940 C.3        1  LIG1  -0.0600
     17 C17        28.0185    21.3166    28.4442 C.3        1  LIG1   0.4600
     18 C18        30.8123    18.0357    29.2689 C.3        1  LIG1  -0.1900
     19 N1         27.1523    19.8510    32.3542 N.am       1  LIG1  -0.1700
     20 N2         30.2213    20.1659    30.3225 N.3        1  LIG1  -0.1700
     21 N3         27.3597    17.2647    33.3750 N.pl3      1  LIG1   0.5200
     22 O1         29.3304    19.8830    32.7749 O.2        1  LIG1  -0.4900
     23 F1         35.4946    21.7898    27.3490 F          1  LIG1  -0.7000
     24 F2         31.2038    17.4401    28.0651 F          1  LIG1   0.0400
     25 F3         31.7950    17.8149    30.2398 F          1  LIG1   0.1600
     26 F4         29.6025    17.4762    29.6941 F          1  LIG1  -0.6000
     27 H1         32.7644    20.2226    30.5692 H          1  LIG1   0.4300
     28 H2         31.3625    20.1918    26.5413 H          1  LIG1   0.9900
     29 H3         34.8972    21.1991    29.8215 H          1  LIG1  -0.1900
     30 H4         33.4902    21.1776    25.7912 H          1  LIG1  -0.1900
     31 H5         25.2726    21.2103    33.7938 H          1  LIG1  -0.1900
     32 H6         25.1107    19.9758    35.1544 H          1  LIG1  -0.1200
     33 H7         27.5468    20.3302    35.7658 H          1  LIG1  -0.1300
     34 H8         27.7087    21.5647    34.4052 H          1  LIG1   0.0700
     35 H9         26.1545    20.2374    28.4802 H          1  LIG1   0.0700
     36 H10        27.0710    20.0715    26.9635 H          1  LIG1   0.0500
     37 H11        27.6022    19.2031    28.4237 H          1  LIG1   0.0800
     38 H12        26.3881    22.7215    28.3496 H          1  LIG1   0.0600
     39 H13        28.0021    23.4569    28.2000 H          1  LIG1   0.0600
     40 H14        27.3046    22.5555    26.8328 H          1  LIG1   0.0600
     41 H15        27.1334    21.5027    30.3994 H          1  LIG1   0.0800
     42 H16        28.7473    22.2383    30.2499 H          1  LIG1   0.0800
     43 H17        29.8667    19.7126    28.3020 H          1  LIG1   0.3800
     44 H18        28.3719    19.2464    29.9378 H          1  LIG1   0.1500
     45 H19        29.0131    21.2005    28.0135 H          1  LIG1   0.1400
     46 H20        26.4364    19.9655    31.7099 H          1  LIG1   0.1400
     47 H21        30.5478    21.1190    30.3773 H          1  LIG1   0.1400
     48 H22        27.6144    17.5189    32.4742 H          1  LIG1   0.4200
     49 H23        27.4248    16.3380    33.6541 H          1  LIG1   0.1400
@<TRIPOS>BOND
     1    1    3 ar
     2    1    5 ar
     3    2    4 ar
     4    2    5 ar
     5    3    6 ar
     6    4    6 ar
     7    5   15 1
     8    6   23 1
     9    7   11 1
    10    7   21 2
    11    8   16 1
    12    8   19 am
    13    8   22 2
    14    9   10 1
    15    9   11 1
    16   10   11 1
    17   11   19 1
    18   12   17 1
    19   13   17 1
    20   14   16 1
    21   14   17 1
    22   15   18 1
    23   15   20 1
    24   16   20 1
    25   18   24 1
    26   18   25 1
    27   18   26 1
    28    1   27 1
    29    2   28 1
    30    3   29 1
    31    4   30 1
    32    9   31 1
    33    9   32 1
    34   10   33 1
    35   10   34 1
    36   12   35 1
    37   12   36 1
    38   12   37 1
    39   13   38 1
    40   13   39 1
    41   13   40 1
    42   14   41 1
    43   14   42 1
    44   15   43 1
    45   16   44 1
    46   17   45 1
    47   19   46 1
    48   20   47 1
    49   21   48 1
    50   21   49 1
##########                 Name:             258070_2
##########          Protonation:                 none
##########               SMILES:   CC(C)C[C@H](N[C@H](C1=CC=C(F)C=C1)C(F)(F)F)C(=O)NC1(C(=[NH2+])[SiH3])CC1
##########            Long Name:   NO_LONG_NAME
##########          FlexRecCode: 1
##########               Number:                   77
##########   Ligand Source File: -
##########                 Rank:                    1
##########               Setnum:                    1
##########             Matchnum:                    1
##########                  OXR:     0.0000     0.0000     0.0000
##########                  OXR:     0.0000     0.0000     0.0000
##########                  OXR:     0.0000     0.0000     0.0000
##########                  OXR:     0.0000     0.0000     0.0000
##########                  OXS:     0.0000     0.0000     0.0000
##########                  OXS:     0.0000     0.0000     0.0000
##########                  OXS:     0.0000     0.0000     0.0000
##########                  OXS:     0.0000     0.0000     0.0000
##########                Cloud:                    1
##########        Electrostatic:             6.210046
##########                 Gist:             0.000000
##########        Van der Waals:            15.977919
##########  Ligand Polar Desolv:            20.833767
########## Ligand Apolar Desolv:            -6.441029
##########         Total Strain:             0.000000
##########           Max Strain:             0.000000
########## Receptor Desolvation:             0.000000
########## Receptor Hydrophobic:             0.000000
##########         Total Energy:            36.580704
##########        Ligand Charge:             1.000000
##########            Arbitrary:    +999.9990
##########        Ligand Energy:             0.000000

@<TRIPOS>MOLECULE
         258070_2      none
   49    50     1     0     0



@<TRIPOS>ATOM
      1 C1         26.6263    27.2978    33.7287 C.ar       1  LIG1  -0.1600
      2 C2         25.6304    25.8706    32.0832 C.ar       1  LIG1  -0.1100
      3 C3         25.7258    28.2964    33.4095 C.ar       1  LIG1  -0.1500
      4 C4         24.7258    26.8660    31.7656 C.ar       1  LIG1  -0.1500
      5 C5         26.5787    26.0856    33.0658 C.ar       1  LIG1   0.0600
      6 C6         24.7758    28.0823    32.4251 C.ar       1  LIG1   0.1200
      7 C7         26.9397    18.1595    34.1963 C.2        1  LIG1   0.0000
      8 C8         27.3381    21.3439    33.7927 C.2        1  LIG1   0.1000
      9 C9         29.3047    18.3116    33.1351 C.3        1  LIG1   0.1100
     10 C10        28.3129    18.8582    32.1065 C.3        1  LIG1  -0.1400
     11 C11        28.0285    19.0149    33.6016 C.3        1  LIG1  -0.0600
     12 C12        29.2730    23.0441    36.6538 C.3        1  LIG1  -0.1500
     13 C13        27.3669    22.4000    38.1350 C.3        1  LIG1   0.1200
     14 C14        26.9649    22.8669    35.7137 C.3        1  LIG1  -0.1300
     15 C15        27.5612    24.9975    33.4148 C.3        1  LIG1  -0.1600
     16 C16        27.5482    22.7456    34.3045 C.3        1  LIG1  -0.0500
     17 C17        27.9501    22.2788    36.7258 C.3        1  LIG1   0.4600
     18 C18        28.6905    24.9797    32.3827 C.3        1  LIG1  -0.1700
     19 N1         28.1668    20.3539    34.1797 N.am       1  LIG1  -0.1900
     20 N2         26.8748    23.6987    33.4122 N.3        1  LIG1  -0.1700
     21 N3         25.7815    18.1296    33.6536 N.pl3      1  LIG1   0.5300
     22 O1         26.4232    21.1066    33.0327 O.2        1  LIG1  -0.4900
     23 F1         23.8948    29.0576    32.1126 F          1  LIG1  -0.7000
     24 F2         29.6025    23.9695    32.7068 F          1  LIG1   0.0400
     25 F3         28.1575    24.7367    31.1123 F          1  LIG1   0.1600
     26 F4         29.3444    26.2165    32.3854 F          1  LIG1  -0.6000
     27 H1         27.3672    27.4643    34.4966 H          1  LIG1   0.4300
     28 H2         25.5942    24.9232    31.5659 H          1  LIG1   0.9900
     29 H3         25.7628    29.2431    33.9277 H          1  LIG1  -0.1900
     30 H4         23.9825    26.6965    31.0005 H          1  LIG1  -0.2000
     31 H5         30.2472    18.8451    33.2585 H          1  LIG1  -0.1800
     32 H6         29.3570    17.2298    33.2585 H          1  LIG1  -0.1200
     33 H7         27.7126    18.1360    31.5529 H          1  LIG1  -0.1300
     34 H8         28.6028    19.7513    31.5529 H          1  LIG1   0.0700
     35 H9         29.0980    24.0948    36.8854 H          1  LIG1   0.0700
     36 H10        29.9749    22.6251    37.3750 H          1  LIG1   0.0600
     37 H11        29.6886    22.9577    35.6499 H          1  LIG1   0.0600
     38 H12        27.1917    23.4506    38.3668 H          1  LIG1   0.0600
     39 H13        26.4242    21.8548    38.1862 H          1  LIG1   0.0600
     40 H14        28.0687    21.9808    38.8559 H          1  LIG1   0.0700
     41 H15        26.7900    23.9176    35.9454 H          1  LIG1   0.0900
     42 H16        26.0224    22.3218    35.7651 H          1  LIG1   0.0800
     43 H17        27.9767    25.1870    34.4047 H          1  LIG1   0.3800
     44 H18        28.6153    22.9660    34.3327 H          1  LIG1   0.1400
     45 H19        28.1251    21.2281    36.4941 H          1  LIG1   0.1400
     46 H20        28.8548    20.5280    34.8409 H          1  LIG1   0.1400
     47 H21        25.9028    23.8029    33.6617 H          1  LIG1   0.1500
     48 H22        25.6042    18.6575    32.8593 H          1  LIG1   0.4200
     49 H23        25.0805    17.5790    34.0363 H          1  LIG1   0.1400
@<TRIPOS>BOND
     1    1    3 ar
     2    1    5 ar
     3    2    4 ar
     4    2    5 ar
     5    3    6 ar
     6    4    6 ar
     7    5   15 1
     8    6   23 1
     9    7   11 1
    10    7   21 2
    11    8   16 1
    12    8   19 am
    13    8   22 2
    14    9   10 1
    15    9   11 1
    16   10   11 1
    17   11   19 1
    18   12   17 1
    19   13   17 1
    20   14   16 1
    21   14   17 1
    22   15   18 1
    23   15   20 1
    24   16   20 1
    25   18   24 1
    26   18   25 1
    27   18   26 1
    28    1   27 1
    29    2   28 1
    30    3   29 1
    31    4   30 1
    32    9   31 1
    33    9   32 1
    34   10   33 1
    35   10   34 1
    36   12   35 1
    37   12   36 1
    38   12   37 1
    39   13   38 1
    40   13   39 1
    41   13   40 1
    42   14   41 1
    43   14   42 1
    44   15   43 1
    45   16   44 1
    46   17   45 1
    47   19   46 1
    48   20   47 1
    49   21   48 1
    50   21   49 1
